<?xml version="1.0" encoding="utf-8"?>
 
<configuration xmlns:xsd="http://www.w3.org/2001/XMLSchema" xmlns:xsi="http://www.w3.org/2001/XMLSchema-instance">
 
 <input>
    <net-file value="../roadnet/haikou.net.xml" />
    <route-files value="haikou.rou.xml" />
  </input>
 
  <time>
    <begin value="0" />
    <end value="6000" />
  </time>

  <processing>
    <ignore-route-errors value="true" />
    <tls.all-off value="true" />
  </processing>
 
</configuration>
