<routes xmlns:xsi="http://www.w3.org/2001/XMLSchema-instance" xsi:noNamespaceSchemaLocation="http://sumo.dlr.de/xsd/routes_file.xsd">
    <vehicle color="white" depart="0.0" id="165">
        <route edges="823606465#3 "/>
    </vehicle>
    <vehicle color="white" depart="20.0" id="18">
        <route edges="-392164748#2 392164748#2 392164748#3 392164748#4 392164748#5 215849731#2 215849731#3 215849731#4 215849731#5 215849731#6 -215849731#6 -215849731#5 215849731#5 215849731#6 215849731#7 -392164753#2 -392164753#1 -392164753#0 -311174050#16 -311174050#15 -311174050#14 -311174050#12 -311174050#10 -311174050#9 -311174050#8 -311174050#7 -311174050#6 -311174050#5 -311174050#4 -311174050#2 -311174050#1 -311174050#0 311174056#0 311174056#1 311174054#0 311174054#1"/>
    </vehicle>
    <vehicle color="white" depart="20.0" id="69">
        <route edges="118909012 -118909012 313081353 118909008#0 118909008#1 118909030#0 118909006 118909024 118909016#1 118909016#2 118909028#0 118909028#1 118909028#2 118909028#3 118909033#0 118909033#1 118909033#2 118909033#3 118909033#4 637332449#1 177337245#5 177337245#6 177337245#7 177337245#8 177337245#9 177337245#10 177337245#11 95569415#0 95569415#1 95569415#2 95569415#3 95569415#4 118909010 118909023 118909030#2 118909037#0 118909037#1 118909037#2 118909037#3 118909037#4 118909037#5 118909037#6 637332397#3 637332397#4 637332397#5 637332397#6 637332397#7 637344440 637344445 211626528#1 666665326 666665327 637332397#11 637332397#12 637332397#13 666665321 666665320#0 666665320#1 666665320#2 637344450 666665316 211626528#3 392149658#0 392149658#1 637344469 666665320#15 666665320#17 736961157 637344465 392149658#3 936154158 936154156#0 936154156#1 215761078#3 936154153#1 936154153#2 936154154 637332493#3 637332493#4 637332493#5 637332493#6 637332493#7 666665318 666665319 637332399#8 637332399#9 637332399#10 637332399#11 637332399#12 637332399#13 637332399#14 211630159"/>
    </vehicle>
    <vehicle color="white" depart="20.0" id="92">
        <route edges="392170944#4 -392170944#4 -392170944#3 -392170944#2 -392170944#1 -392170944#0 392170938#3 496062517#4 496062517#4 496062517#5 214762712#11 214762712#12 214762712#13 214762712#14 214762712#16 214762712#17 214762712#19 214762712#20 214762712#21 214762712#22 214762712#23 214762712#24 214762712#25 214762712#26 214762712#27 214762712#28 214762712#29 214762712#30 214762712#31 214762712#32 214762712#33 214762712#34 394209909#1 394209909#2 394209909#3 394209909#5 214740251#1 214740251#2 214740251#3 214740251#4 309913317 214750826 214742601#0 214742601#1 214742601#2 214742601#3"/>
    </vehicle>
    <vehicle color="white" depart="20.0" id="115">
        <route edges="-310795520#1 -544109482#2 310814558 211638429#3 211682584#1 211682584#1 211682584#1 211682584#2 211682584#3 211638429#2 211638429#3 211638429#4 211682449#0 211682449#1 211682449#2 211682449#3 211682449#5 211682449#6 211682449#7 211682449#8 211682449#9 211682449#10 211682449#11 211682449#12 211682449#14 211682449#15 211682449#16 211863022#0 211863022#1 211863022#2 215725824 -215725839#1 -215725839#0 215725822#0 215725822#1 -288650642 288650643#0 288650643#1 288650643#2 666665320#12 666665320#13 666665320#14 666665320#15 666665320#17 736961157 637344465 392149658#3 936154158 936154156#0 936154156#1 215761078#3 936154153#1 936154153#2 936154154 637332493#3 637332493#4 637332493#5 637332493#6 637332493#7 666665318 666665319 637332399#8 637332399#9 637332399#10 637332399#11 637332399#12 637332399#13 637332399#14 637332399#15 637332399#16 666665322 666665323#0 637332381 310884461#4 310884461#5 310884461#7 310884461#8 211623364#22 211623364#23 211623364#24"/>
    </vehicle>
    <vehicle color="white" depart="50.0" id="188">
        <route edges="214740251#4 309913317 214750826 214742601#0 214742601#1 214740696#1 214740696#2 214747994 214750825#0 214750825#1 309913317 214750826 214742601#0 214742601#1 214740696#1 214740696#2 214747994 214750825#0 214750825#1 310735320#1 310735320#2 310735322#0 310735322#1 310735322#2 310735322#3 392169521 666670930#1 392169520#1 666670930#0 -392169521 392169521"/>
    </vehicle>
    <vehicle color="white" depart="60.1" id="189">
        <route edges="214750825#1 310735320#1 310735320#2 310735322#0 310735322#1 310735322#2 310735322#3 392169521 666670930#1 392169520#1 666670930#0 -392169521 392169521 666670930#1 392169520#1 392169520#2 666670932#0 -214750821#2 214750821#2 666670932#1 392169520#4 392169513#0 666670931 213551414#3 213551414#4 213551414#5 213551414#6 213551414#7 315471865 -315471865"/>
    </vehicle>
    <vehicle color="white" depart="80.0" id="213">
        <route edges="-217816084#0 -217816086#7 -526759028#1 526759027#1 -526759027#1 -526759028#0 526759028#0 526759028#1 -217816086#6 -637332382#6 -637332382#5 -637332382#2 637332379#2 -217818965#4 -217818965#3 -217818965#2 -211687377 -217820253#3 -217820253#2 -217820253#1 -217820253#0 -392169523#1 -392169523#0 217820823#0 217820823#1 217820823#2 217820823#3 -95569417#6 -95569417#5 -95569417#4 -311186879#4 -311186879#3 -311186879#2 -311186879#1 311186879#1"/>
    </vehicle>
    <vehicle color="white" depart="90.0" id="45">
        <route edges="214762712#34 214762711#3 214762711#4 -310795530#4 -310795530#3 -310795530#2 -310795530#1 310795530#1 -310795530#1 310795530#1 310795530#2 310795530#3 214762712#33 214762712#34 214762712#36 214762712#37 214762712#38 214762803 211999040#0 211999040#1 211999040#2 211999040#3 211999040#4 211999040#5 211999040#6 211999040#8"/>
    </vehicle>
    <vehicle color="white" depart="90.0" id="169">
        <route edges="945618310 945618309 897296052#1 897296045#4 1022311983 1022311964 1022311966#0 1022311966#1 1022311966#2 137336546#0 137336546#1 137336546#2 137336543 211926053#0 34689494 127565130#0 127565130#1 127565140 181327440#1 181327445 211918919#1 211918919#2 211918919#3 211925865 71226744 1022311988#0 1022311988#1 945618233#0 945618233#1 945618233#2 945618233#3 1022311965#0 1022311965#1 1022311963 1022311979#0 945618121#0 945618121#1 945618121#2 945618121#2 945618121#3 945618121#4 945618121#5 945618121#6 945618320#0 1009050516 897296045#1 897296045#2 897296045#3 897296045#4 1022311983 1022311964 1022311966#0 1022311966#1 1022311966#2 251980805 630067139#0 630067139#1 211929145#0 211929145#1 211929145#2 -229527721#11 -229527721#10 -229527721#9 -229527721#8 -229527721#6 -229527721#5 -229527721#4 -229527721#3 -229527721#2 -229527721#0 311131883 214796397 214796399 311131884#0 311131884#1 311131884#2 311131884#3"/>
    </vehicle>
    <vehicle color="white" depart="110.0" id="82">
        <route edges="211999040#5 211999040#5 165193657#5 543120844#1 543120844#2 543120844#3 543120844#4 -543120844#4 -543120843#1 -543120843#0 -177337268#3 -177337268#2 165193657#8 214762804 214762711#0 214762711#0"/>
    </vehicle>
    <vehicle color="white" depart="120.0" id="7">
        <route edges="531240770#3 -215507351#3 -215507351#1 531240770#1 531240770#3 -215507351#3 -215507351#1 531240770#1 531240770#3 -215507351#3 -215507351#1 -215507351#0 215507349 215499150#0 215499150#1 215499150#3 215499150#4 215499154#1 215499153#1 215499153#3 215499153#4 215499153#5 215499153#7 215499153#8 215499153#9 637332429#0 637332429#1 637344418 637344408#5 637344408#6 637344408#7 217821179#3 217821179#4 217821179#5 -531466789#1 -531466789#0 531466788#1 531466788#2 -531466788#2 531466788#2 -531466788#2"/>
    </vehicle>
    <vehicle color="white" depart="120.0" id="151">
        <route edges="214756508#1 214756508#2 214756508#2 214756508#3 214756508#4 214756508#5 71216059#7 71216059#8 71216059#9 71216059#10 71216059#11 71216059#12 394209910#0 394209910#1 394209910#2 218010361 218010359#0 218010359#1 218010359#2"/>
    </vehicle>
    <vehicle color="white" depart="130.0" id="29">
        <route edges="392169523#0 -392169523#0 217820823#0 217820823#1 217820823#2 217820823#3 217820823#4 -217820823#4 -217820823#3 -217820823#2 -217820823#1 -217820823#0 217820823#0 217820823#1 217820823#2 217820823#3 -95569417#6 -95569417#5 -95569417#4 -95569417#3 -95569417#2 -95569417#1 -95569417#0 -95569391#5 -95569391#4 -95569391#3 -95569391#2 -95569391#1 118909032#2 118909032#3 118909032#4 118909032#5 118909032#6 118909017#0 118909017#1 118909017#2 118909027 589802655#0 589802655#1 313081352#0 313081352#1 313081352#2 -310770459#4 -310770459#3 531245348#1"/>
    </vehicle>
    <vehicle color="white" depart="130.0" id="56">
        <route edges="118911182#1 -118911182#1 -118911182#0 118911196#0 118911196#1 118911177 118909018#0 215499152#13 118911191 118911190#2 118911190#3 118911190#4 118911190#0 118911177 118909018#0 118909018#1 118909018#3 118909018#4 118909018#5 118909018#6 118909018#7 118909018#9 118909018#10 118909018#11 118909018#12 95569389#0 95569389#1 177337259 666665334#21 666665334#22 666665334#23 177337247 177337250#0 315471855#1 315471855#2 315471855#3 315471855#4 -315471859 -315471863#3 -315471863#2 315471863#2"/>
    </vehicle>
    <vehicle color="white" depart="130.1" id="8">
        <route edges="531240770#3 -215507351#3 -215507351#1 -215507351#0 215507349 215499150#0 215499150#1 215499150#3 215499150#4 215499154#1 215499153#1 215499153#3 215499153#4 215499153#5 215499153#7 215499153#8 215499153#9 637332429#0 637332429#1 637344418 637344408#5 637344408#6 637344408#7 217821179#3 217821179#4 217821179#5 -531466789#1 -531466789#0 531466788#1 531466788#2 -531466788#2 531466788#2 -531466788#2 531466788#2 215521884#4 215521884#5 215521896#0 310692441#0 -217821179#3 -217821179#2 217821179#2 217821179#3 -217821179#3"/>
    </vehicle>
    <vehicle color="white" depart="140.0" id="146">
        <route edges="800824926#2 800824926#3 392169510#3 392169510#3 392169510#4 392169510#5 392169510#6 392169510#7 392169510#8 800824924 800824925#0 800824925#1 215501212#0 177337277#0 310693011 310693010#0 310693010#1 310693010#2 310693010#3 310693010#5 310693010#6 310693010#7 310693010#8 215499153#7 215499153#8 310770459#0"/>
    </vehicle>
    <vehicle color="white" depart="150.0" id="100">
        <route edges="309913324#0 -309913324#0 -310659407#2 310659407#2 309913324#0 309913324#1 309913324#2 309913324#3 666679790#0 666679790#1 71216059#4 71216059#5 71216059#7 71216059#8 71216059#9 71216059#10 71216059#11 71216059#12 214762712#36 214762712#37 214762712#38 214762803 211999040#0 211999040#1 165193657#8 214762804 214762711#0"/>
    </vehicle>
    <vehicle color="white" depart="150.0" id="219">
        <route edges="218015446#2 -218015446#2 218015446#2 -218015446#2 -218015446#1 -218015446#0 -216447275#7 392169516#0 392169516#1 392169516#2 315471863#0 315471863#2 315471863#3 315471859 -315471855#4 -315471855#3 -315471855#2 -315471855#1 177337250#1 315468094#0 315468094#1 315468094#2 315468094#3 315468094#4 531240770#3 531240770#4 531240769#1 531240769#2"/>
    </vehicle>
    <vehicle color="white" depart="150.0" id="229">
        <route edges="823606465#5 823606465#6 823606465#7 118911185 216272899#5 216272899#6 216272899#7 216272899#8 216272899#9 216272899#10 216272899#11 216272899#12 216272899#13 216272899#14 216272899#15 216272899#16 216272899#17 216272899#18 216272899#19 180863712#21 823606465#1 823606465#2 823606465#3 823606465#3 823606465#3 314552794 216272899#9 216272899#10 216272899#11 216272899#12 942460816#0 177110502#0 177110502#1 177110502#2 177110502#3 311174054#1 217924821#0 217924821#1 118909018#3 118909018#4 118909018#5 118909018#6 118909018#7 118909018#9 118909018#10 118909018#11 118909018#12 95569389#0 95569389#1 95569389#2 177337272#0 177337272#1 177337272#2 177337272#3 213551414#2 213551414#3 213551414#4 213551414#5 213551414#6 213551414#7 213551414#8 213551414#9 395452881 213551415 212763162 212763164#0 212763164#1 212454781 212454783 214764911 127566945 181327440#0 181327440#1 181327445 211918919#1 211918919#2 211918919#3 211925865 71226744 1022311988#0 1022311988#1 945618233#0 945618233#1 945618233#2 945618233#3 1022311965#0 1022311965#1 1022311963 1022311979#0 945618121#0 945618121#1 945618121#2 945618121#2"/>
    </vehicle>
    <vehicle color="white" depart="160.0" id="25">
        <route edges="214984139#11 -214984139#11 -214984139#10 -214984139#9 -214984139#8 942287378#1 942287378#1 942287378#2 215213979#3 215213979#4 215213979#5 215213979#6 311174050#10 311174050#12 311174050#14 311174050#15 311174050#16 215880152#6 215880152#7 215880152#8 215880152#9 215880143 392164742 392164750 311174048#0 311174048#1 392167081 840105974#0 840105974#1 840105974#2 840105974#3 812732540 812732539#0 812732539#1 677730439 677730442#0 677730442#1 677730442#2 677730442#3 677730442#4 677730435 677730434#0 677730434#1 211989559#11 211989559#12 165194601#9 165194601#10 165194601#11 165194601#12 -165194601#12"/>
    </vehicle>
    <vehicle color="white" depart="160.0" id="73">
        <route edges="531471321 531471322 95569417#2 -95569417#2 -95569417#2 -95569417#1 -95569417#0 -95569391#5 -95569391#4 -95569391#3 -95569391#2 -95569391#1 118909032#2 118909032#3 118909032#4 118909032#5 118909032#6 118909017#0 118909017#1 118909017#2 118909027 589802655#0 589802655#1 313081352#0 313081352#1 313081352#2 313081352#3 -118911182#2 -118911182#1 -118911182#0 118911196#0 118911196#1 118911177 118909018#0 118909018#1 118909018#3 215499152#9"/>
    </vehicle>
    <vehicle color="white" depart="170.0" id="95">
        <route edges="217819692 666665323#2 666665323#3 217818965#2 217818965#3 -217816084#7 -217816084#6 -217816084#5 -217816084#4 -217816084#3 217816084#3 -217816084#3 637332389#2 211631682#1 211631682#2 211631682#3 211631682#4 211631682#5 496062514#5 666665320#5 666665320#6 666665320#7 666665320#8 666665320#9 666665320#10 666665320#12 666665320#13 666665320#14 666665320#15 666665320#17 736961157 637344465 392149658#3 936154158 936154156#0 936154156#1 215761078#3 936154153#1 936154153#2 936154154 637332493#3 637332493#4 637332493#5 637332493#6 637332493#7 666665318 666665319 637332399#8 637332399#9 637332399#10 637332399#11 637332399#12 637332399#13 637332399#14 211630159 211623724#7 211623724#8 211623724#9 211623724#10 637332390#0 -217816084#1 -217816084#0 -217816086#7 -217816086#6 -217816086#5 -217816086#4 -217816086#3 -217816086#2 -217816086#1 -217816086#0 -544109482#3 -544109482#2 -544109482#1 211682584#4 211682584#5 211682584#6 544119439#1 544119439#2 -544119439#2 -544119439#1 211682584#7 211682584#8 211682584#9 211682584#10 211682584#11 871370102#0 871370102#1 871370102#2 871370102#4 871370102#5 871370102#6 215501210#0 215501210#1 637629496#0 637629496#1 666665334#23 177337247 177337250#0 177337250#1 177337250#2 177337250#3 177337250#4 -71216124 -310735294 310735298#0 310735298#1 211989559#5 211989559#6 211989559#7 211989559#8 211989559#9 677730463"/>
    </vehicle>
    <vehicle color="white" depart="170.0" id="201">
        <route edges="-213551414#6 213551414#6 -216447275#7 216447275#7 -213551414#6 213551414#6 213551414#7 213551414#8 213551414#9 395452881 213551415 212763162 212763164#0 212763164#1 212454781 212454783 214764911 127566945 181327440#0 181327440#1 181327445 211918919#1 211918919#2 211918919#3 211925865 71226744 1022311988#0 1022311988#1 945618233#0 945618233#1 945618233#2 945618233#3 1022311965#0 1022311965#1 1022311963 1022311979#0 945618121#0 945618121#1 945618121#2"/>
    </vehicle>
    <vehicle color="white" depart="210.0" id="90">
        <route edges="211682584#9 211682584#10 211682584#11 392167091#0 392167091#1 392167091#2 392167091#3 -392169522#1 -392169522#0 314555382#0 310795520#2 392169522#1 392169522#2 544119439#0 211682584#7 211682584#8 211682584#9 211682584#10 211682584#11 871370102#0 871370102#1 871370098 392169518 392169519 -392169519 -392169518"/>
    </vehicle>
    <vehicle color="white" depart="230.0" id="44">
        <route edges="-637332463#1 310694989#1 310694989#2 637332471#0 637332471#1 637332471#2 637332471#3 637332471#4 -215499153#4 -215499153#3 215499153#3 -215499153#3 310735309#0 310735309#1 310735309#2 310735309#3 310735309#5 -637332463#1 310694989#1 310694989#2 177337244#17 177337244#18 177337244#19 177337244#21 666665332#0 666665332#1 637332489#0 637332489#1 637332489#2 637332495 211626528#0 211626528#1 666665326 666665327 637332397#11 637332397#12 637332397#13 666665321 666665320#0 666665320#1 666665320#2 637344450 666665316 211626528#3 392149658#0 392149658#1 637344469 666665320#15 666665320#17 736961157 637344465 392149658#3 936154158 936154156#0 936154156#1 215761078#3 936154153#1 936154153#2 936154154 637332493#3 637332493#4 637332493#5 637332493#6 637332493#7 "/>
    </vehicle>
    <vehicle color="white" depart="260.1" id="116">
        <route edges="211682584#1 211682584#2 211682584#3 211638429#2 211638429#3 211638429#4 211682449#0 211682449#1 211682449#2 211682449#3 211682449#5 211682449#6 211682449#7 211682449#8 211682449#9 211682449#10 211682449#11 211682449#12 211682449#14 211682449#15 211682449#16 211863022#0 211863022#1 211863022#2 215725824 -215725839#1 -215725839#0 215725822#0 215725822#1 -288650642 288650643#0 288650643#1 288650643#2 666665320#12 666665320#13 666665320#14 666665320#15 666665320#17 736961157 637344465 392149658#3 936154158 936154156#0 936154156#1 215761078#3 936154153#1 936154153#2 936154154 637332493#3 637332493#4 637332493#5 637332493#6 637332493#7 666665318 666665319 637332399#8 637332399#9 637332399#10 637332399#11 637332399#12 637332399#13 637332399#14 637332399#15 637332399#16 666665322 666665323#0 637332381 310884461#4 310884461#5 310884461#7 310884461#8 211623364#22 211623364#23 211623364#24"/>
    </vehicle>
    <vehicle color="white" depart="270.0" id="144">
        <route edges="392164758#3 392164758#4 392164758#5 215213979#1 215213979#2 215213979#3 215213979#4 215213979#5 215213979#6 311174050#10 -311174050#10 942287377#0 -942287377#0 -311174050#9 -311174050#8 -311174050#7 -311174050#6 -311174050#5 -311174050#4 -311174050#2 -311174050#1 -311174050#0 311174056#0 311174056#1 311174054#0 311174054#1 217924821#0 217924821#1 118909018#3 118909018#4 118909018#5 118909018#6 118909018#7 118909018#9 118909018#10 118909018#11 118909018#12 95569389#0 95569389#1 95569389#2 177337272#0 177337272#1 177337272#2 177337272#3 213551414#2 213551414#3 213551414#4 -213551414#4 -213551414#3 -213551414#2 215501212#0 215501212#1 215501212#2 215501212#4 215501212#5 215501212#6 215501212#7 215501212#8 392167091#0 71216059#0 871370100#1 -309913324#4 -309913324#3 -309913324#2 -309913324#1 -309913324#0 -310659407#2 310659407#2"/>
    </vehicle>
    <vehicle color="white" depart="270.0" id="205">
        <route edges="   118909014"/>
    </vehicle>
    <vehicle color="white" depart="270.0" id="225">
        <route edges="392170944#4 -392170944#4 392170944#4 -392170944#4 392170944#4 392170944#5 392170944#6 526747219 210594692#18 211676966#9 211638992#0 526759027#0 526759027#1 526759027#2 -95569405#9 -95569405#8 -95569405#7 -95569405#6 -95569405#3 666665323#5 666665323#6 666665323#7 666665323#9 666665323#11 118909032#0 118909032#1 118909032#2 118909032#3 118909032#4 118909032#5 118909032#6 118909017#0 118909017#1 118909017#2 118909027 589802655#0 589802655#1 313081352#0 -215499153#11 -215499153#9 310770459#0"/>
    </vehicle>
    <vehicle color="white" depart="280.0" id="51">
        <route edges="392167087#0 528947280 216281421#2 216281421#0 528947281 311174048#1 392167081 840105974#0 840105974#1 812732541#2 812732541#3 812732541#4 812732541#5 392167087#0 392167087#1 215213941 392164746 177110505#0 177110505#1 177110505#2 177110505#3 -311174050#16 -311174050#15 -311174050#14 -311174050#12 -311174050#10 -311174050#9 -311174050#8 -311174050#7 -311174050#6 -311174050#5 -177337273#3 -177337273#2 -177337273#1"/>
    </vehicle>
    <vehicle color="white" depart="280.0" id="78">
        <route edges="188361621#6 -188361621#6 -188361621#4 -188361621#3 188361621#3 526760403#1 526760403#2 310694996#3 310694996#4 310694996#5 310694996#6 310694996#7 637344422#0 637344422#0 637344423#1 310694996#9 310694996#10 637344408#0 637344408#1 637344408#2 637344408#4 637344408#5 637344408#6 637344408#7 637344408#8 118909031#1 215521885#0 215521885#1 215521885#2 215521885#3 215521885#4 215521885#5 215521885#6 215521883 215228504 666679796#0 215333230 666679800 215333227 215333223 215333234#1 215333228 215333224#0 215333224#1 215333231 666679799 95569400#1 177110514 1013511134 666679795#0 666679795#1 211623364#1 211623364#2 211623364#3 543893778#3 543893778#4 177110539#0 177110539#1 177110539#2 177110539#3 118911178#0 118911178#1 118911178#2 118911178#4 118911178#6 118911178#7 118911178#8 118911178#9 118911178#10 118911178#11 216272899#0 216272899#1 216272899#2 216272899#3 216272899#4 216272899#5 216272899#6 216272899#7 177110499 823606465#5 177110508 215338751 215338752#0 215338752#1 215338752#2 382185127#1 382185127#2 382185127#3 382185127#4 -214984139#12 -214984139#11 -214984139#10 -214984139#9 -214984139#8 -214984139#6 -214984139#5 -214984139#4"/>
    </vehicle>
    <vehicle color="white" depart="280.1" id="206">
        <route edges=" 118909014 118909014 637332411 118909037#3 118909037#4 118909032#2 118909032#3 118909032#4 637344428 310692441#4 310692441#5 310692441#6 217818969#7 637344408#4 637344408#5 637344408#6 637344408#7 217821179#3 217821179#4 217821179#5 217821179#6 95569417#0 95569417#1 95569417#2 -95569417#2"/>
    </vehicle>
    <vehicle color="white" depart="290.0" id="181">
        <route edges="531473317#0 -531473317#0 531473318#1 95569391#5 95569417#0 95569417#1 95569417#2 95569417#3 95569417#4 95569417#5 95569417#6 217820823#4 -217820823#4 -217820823#3 -217820823#2 -217820823#1 -217820823#0 217820823#0 217820823#1 217820823#2 217820823#3 -95569417#6 -95569417#5 -95569417#4 -95569417#3 95569417#3 95569417#4 -95569417#4 -95569417#3 -95569417#2 -531471322 -531471321 177110506#0 177110506#1 177110506#2 637332423#0 544119446#0 544119446#1 544119446#2 544109482#8 -310692445#2 310692445#2 -310692445#2 -310692445#0 310795527#0 310795527#1 310795527#2 118909033#7 118909033#8 118909033#9 118909033#10 71216059#0 71216059#1 71216059#2 71216059#3 71216059#4 71216059#5 71216059#7 71216059#8 71216059#9 71216059#10 71216059#11 71216059#12 394209910#0 394209910#1 394209910#2 218010361 218010359#0 218010359#1 218010359#2 218010359#3 218010359#4 218010359#5 218010359#6 220091558 220096267 220096266#0 220091576 220096158 220096157#0 220096157#1 220110895 220110897 252880974#1 211918919#0 211918919#1 211918919#2 211918919#3 211925865 71226744 1022311988#0 1022311988#1 945618233#0 945618233#1 945618233#2 945618233#3 1022311965#0 1022311965#1 1022311963 1022311979#0 945618121#0 945618121#1 945618121#2"/>
    </vehicle>
    <vehicle color="white" depart="370.0" id="16">
        <route edges="871370096#2 871370096#3 871370096#4 871370102#1 871370102#2 215501212#4 215501212#5 215501212#6 215501212#7 215501212#8 392167091#0 71216059#0 871370100#1 -309913324#4 -309913324#3 -309913324#2 -309913324#1 -309913324#0 -310659407#2 310659407#2 309913324#0 309913324#1 309913324#2 309913324#3 309913324#4 309913324#5 309913324#6 394209909#11 871370096#0 871370096#1 871370096#2 871370101 -871370095 392169518 392169519 -310735322#2 -310735322#1 -310792433#3 -310792433#2 -310792433#1 -310792433#0  95569415#4 95569415#5 118909031#0 118909031#1 215521885#0 215521885#1 215521885#2 215521885#3 215521885#4 215521885#5 215521885#6 215521883 215228504 666679796#0 666679796#1 215233625 215236713#0 215236713#1 215236709 215019974#1 215019974#2"/>
    </vehicle>
    <vehicle color="white" depart="380.0" id="26">
        <route edges="-392167084#5 -392167084#4 527238222#2 310770457#1 637629419#5 215499153#3 -215499153#3 215499153#3 -215499153#3 310735309#0 310735309#1 310735309#2 310735309#3 666665334#14 666665334#15 666665334#16 666665334#17 666665334#18 666665334#19 666665334#20 666665334#21 637629497 215499149#1 215499149#2 215499152#0 215499152#1 215505015#0 215505015#1 215505015#2 215505015#2 215505015#3 215505015#4 180863706#6 180863706#7 118909018#11 118909018#12 95569389#0 95569389#1 95569389#2 177337272#0 177337272#1 177337272#2 177337272#3 213551414#2 213551414#3 213551414#4 -213551414#4 -213551414#3 -666670931 392169513#1 392169520#6 392169520#0 392169520#1 666670930#0 -392169521 -310735322#3 -310735322#2 -310735322#1 -310792433#3 -310792433#2 -310792433#1 -310792433#0"/>
    </vehicle>
    <vehicle color="white" depart="390.0" id="125">
        <route edges="215666063#6 215666063#7 210594692#8 210594692#9 210594692#10 210594692#11 496062514#0 496062514#1 496062514#2 217817304#4 217817304#5 -217817304#5 -217817304#4 -217817304#2 -217817304#1 217817304#1 -392170944#12 -392170944#11 637332378 211682449#11 211682449#12 211682449#14 211682449#15 211682449#16 211863022#0 211863022#1 211863022#2 215725824 -215725839#1 -215725839#0 215725822#0 215725822#1 -288650642 288650643#0 288650643#1 288650643#2 666665320#12 666665320#13 666665320#14 666665320#15 666665320#17 736961157 637344465 392149658#3 936154158 936154156#0 936154156#1 215761078#3 936154153#1 936154153#2 936154154 637332493#3 637332493#4 637332493#5 637332493#6 637332493#7 666665318 666665319 637332399#8 637332399#9 637332399#10 637332399#11 637332399#12 637332399#13 637332399#14 211630159 211623724#7 211623724#8 211623724#9 211623724#10 637332390#0 -217816084#1 -217816084#0 -217816086#7 -217816086#6 -217816086#5 -217816086#4 -217816086#3 -217816086#2 -217816086#1 -217816086#0 -544109482#3 -544109482#2 -544109482#1 211682584#4 211682584#5 211682584#6 211682584#7 211682584#8 211682584#9 211682584#10 211682584#11 177337245#0 177337245#1 177337245#2"/>
    </vehicle>
    <vehicle color="white" depart="390.0" id="142">
        <route edges="-215507351#0 215507349 215499150#0 215499151#4 1013519186 531240770#0 531240770#1 -215507351#1 -215507351#0 215507349 215499150#0 215499150#1 215499150#3 215499150#4 215499152#6 215499152#7 215499152#8 215499152#9 215499152#10 215499138#1 215499138#2 217924819#0 217924819#1 942460819#0 942460819#1 311174050#0 311174050#1 311174050#2 311174050#4 311174050#5 311174050#6 311174050#7 311174050#8 311174050#9 311174050#10 311174050#12 311174050#14 311174050#15 311174050#16 392164753#0 392164753#1 392164753#2 -215849731#7 -215849731#6"/>
    </vehicle>
    <vehicle color="white" depart="390.0" id="193">
        <route edges="165193657#1 -310660677#2 -310660677#1 492109966#0 492109966#1 -492109966#1 -492109966#0 -310660677#0 213550139#1 212763160 213551828 395452882 -213551414#9 -213551414#8 -213551414#7 -216447275#7 -216447275#6 -216447275#5 -216447275#4 -216447275#3 -216447275#2 -216447275#1 -216447275#0 977046392#0 977046392#1 212008909#29 212008909#29 212008909#30 180863725 180863712#1 392169510#1 392169510#2 392169510#3 392169510#4 392169510#5 315471863#2 315471863#3 315471859 -315471855#4 -315471855#3 -315471855#2 -315471855#1 -315471855#0 118909026#4 177337248 177337244#0 177337254#0 177337254#1 215499152#1 215505015#0 215505015#1 215505015#2 215505015#3 215505015#4 180863706#6 180863706#7 118909018#11 177337258 177337244#4 311176778#0 311176778#1 -392167084#6 -392167084#5 -392167084#4 -392167084#3 -392167084#1 -392167084#0 637332471#3 637332471#4 177337260#0 177337260#1 531245350#0 531245350#1 215499138#1 215499138#2 217924819#0 217924819#1 942460819#0 942460819#1 311174050#0 311174050#1 311174050#2 311174050#4 311174050#5 311174050#6 311174050#7 311174050#8 311174050#9 942287378#0 942287378#1 942287378#2 942287378#3 942287378#4 942287378#5 215338752#6 215338752#7 215338752#8"/>
    </vehicle>
    <vehicle color="white" depart="400.0" id="111">
        <route edges="666670926#2 666670926#2 666670926#2 666670926#3 666670926#5 666670926#6 310735294 71216124 118909026#0 118909026#1 118909026#2 118909026#3 118909026#4 177337248 177337244#0 177337244#1 177337244#2 177337262 95569389#1 95569389#2 177337272#0 177337272#1 177337272#2 177337272#3 215501212#0 215501212#1 215501212#2 215501212#4 215501212#5 215501212#6 215501212#7 215501212#8 392167091#0 392167091#1 392167091#2 392167091#3 392167091#4 211638429#0 211638429#1 211638429#2 211638429#3 211638429#4 211682449#0 211682449#1 211682449#2 211682449#3 211682449#5 211682449#6 211682449#7 211682449#8 211682449#9 211682449#10 211682449#11 211682449#12 211682449#14 211682449#15 211682449#16 215666063#9 215666063#10 215666063#11 872309920#1 872309920#2 -872309920#2 872309920#2"/>
    </vehicle>
    <vehicle color="white" depart="410.0" id="11">
        <route edges="544119447 -544119447 -637332423#4 637332423#4 544119447 217816086#1 217816086#2 217816086#3 217816086#4 217816086#5 217816086#6 217816086#7 217816084#0 217816084#1 637332389#2 211631682#1 211631682#2 211631682#3 211631682#4 211631682#5 496062514#5 637344452 823597409#0 211623364#29 211623364#30 211623364#31 215663017 215663014#0 215663014#1 215663014#3 215663014#5 215663014#6 215663014#7 215663014#8 215663014#9 215663014#11 215663014#13 311274321#4"/>
    </vehicle>
    <vehicle color="white" depart="410.1" id="112">
        <route edges="666670926#2 666670926#3 666670926#5 666670926#6 310735294 71216124 118909026#0 118909026#1 118909026#2 118909026#3 118909026#4 177337248 177337244#0 177337244#1 177337244#2 177337262 95569389#1 95569389#2 177337272#0 177337272#1 177337272#2 177337272#3 215501212#0 215501212#1 215501212#2 215501212#4 215501212#5 215501212#6 215501212#7 215501212#8 392167091#0 392167091#1 392167091#2 392167091#3 392167091#4 211638429#0 211638429#1 211638429#2 211638429#3 211638429#4 211682449#0 211682449#1 211682449#2 211682449#3 211682449#5 211682449#6 211682449#7 211682449#8 211682449#9 211682449#10 211682449#11 211682449#12 211682449#14 211682449#15 211682449#16 215666063#9 215666063#10 215666063#11 872309920#1 872309920#2 -872309920#2 872309920#2"/>
    </vehicle>
    <vehicle color="white" depart="420.0" id="67">