<routes xmlns:xsi="http://www.w3.org/2001/XMLSchema-instance" xsi:noNamespaceSchemaLocation="http://sumo.dlr.de/xsd/routes_file.xsd">
    <vType id="car" vClass="passenger" color="1,0,0"/>
    <route id="route1" edges="-544109482#6 -544109482#5 -544109482#4 217816086#0 217816086#1 217816086#2 217816086#3 95569405#9 -526759027#2 -526759027#1"/>
    <vehicle id="vehicle1" type="car" route="route1" depart="0">
        <flow id="flow1" route="route1" begin="0" end="100"/>
        <flow id="flow2" route="route1" begin="100" end="200"/>
        <person id="person1" depart="50" from="-544109482#4" to="217816086#3"/>
        <person id="person2" depart="150" from="95569405#9" to="-526759027#1"/>
    </vehicle> 
    
    
    <!-- <vehicle depart="80.0" id="0">
        <route edges="-544109482#6 -544109482#5 -544109482#4 217816086#0 217816086#1 217816086#2 217816086#3 95569405#9 -526759027#2 -526759027#1" speed="10.64038888888889"/>
    </vehicle>

<routes>
  <vType id="car" vClass="passenger" color="1,0,0"/>
  <route id="route1" edges="edge1 edge2 edge3"/>
  <vehicle id="vehicle1" type="car" route="route1" depart="0">
    <flow id="flow1" route="route1" begin="0" end="100"/>
    <flow id="flow2" route="route1" begin="100" end="200"/>
    <person id="person1" depart="50" from="edge1" to="edge2"/>
    <person id="person2" depart="150" from="edge2" to="edge3"/>
  </vehicle>
</routes> -->
    <!-- <vehicle depart="440.0" id="1">
        <route edges="-526759028#0 211682449#2 211682449#3 211682449#4 211682449#5 211682449#6 211682449#7 211682449#8 211682449#9 -392170944#8 -392170944#7 -392170944#6 -392170944#5 -392170944#4 392170944#4" speed="12.884047619047621"/>
    </vehicle>
    <vehicle depart="650.0" id="2">
        <route edges="310884463#0 310884463#1 310884463#2 310884463#3 310884463#4 637332399#9 637332399#10 637332399#11 637332399#12 637332399#13 637332399#14 211630159" speed="10"/>
    </vehicle>
    <vehicle depart="650.0" id="3">
        <route edges="392170944#5 392170944#6 392170944#7 392170944#8 392170944#9 392170944#10 392170944#11 392170944#12 217817304#2 -217817304#2" speed="9.513617398883712"/>
    </vehicle>
    <vehicle depart="860.923975168" id="4">
        <route edges="211623724#7 217818963#0 310884461#2 217819692 666665323#2 666665323#3 666665323#4 666665323#5 666665323#6 666665323#7 666665323#8 666665323#9 666665323#10 666665323#11 118909032#0 118909032#1 118909032#2 118909032#3 118909032#4 118909032#5 118909032#6 118909017#0 118909017#1 118909017#2 118909027 589802655#0 589802655#1 313081352#0 -215499153#11 -215499153#10 -215499153#9" speed="6.171102975665339"/>
    </vehicle>
    <vehicle depart="1850.0" id="5">
        <route edges="211623724#7 211623724#8 211623724#9 211631679#0 211631682#2 -217817306#3 -217817306#2 -217817306#1 -217817306#0 526747221#0 526747221#1 526747221#2 526747221#3 526747222 211682449#7 211682449#8 211682449#9 211682449#10 211682449#11 211682449#12 211682449#13 210630187 496062517#0 496062517#1 496062517#2 496062517#3 496062520#0 496062520#1" speed="9.940816326530612"/>
    </vehicle>
    <vehicle depart="2340.0" id="6">
        <route edges="496062520#2 -481390255#0 392170944#0 392170944#1 392170944#2 392170944#3 392170944#4 392170944#5 392170944#6 392170944#7 392170944#8 392170944#9 392170944#10 392170944#11 526747220#0 526747220#1 -526747221#2 -526747221#1 -526747221#0 217817306#0 217817306#1 217817306#2 217817306#3 -211631682#2 -211631682#1 -211631682#0 310884461#1 310884461#2 217819692 666665323#2 666665325 666665324 637332493#9 637332493#10" speed="10.70950704225352"/>
    </vehicle>
    <vehicle depart="3050.0" id="7">
        <route edges="637332493#10 637332491#0 637332491#1 71216132#0 71216132#1 666665334#0 570165641#8 177337244#22 666665332#0 666665336 310694996#7 310694996#8 310694996#9 310694996#10 637344408#0 637344408#1 637344408#2 637344408#3 637344408#4 637344408#5 637344408#6 637344408#7 217821179#3 217821179#4 217821179#5 217821179#6 95569417#0 95569417#1 95569417#2 95569417#3 95569417#4 95569417#5 95569417#6 -217820823#3 -217820823#2 -217820823#1 -217820823#0" speed="20.56321951219512"/>
    </vehicle> -->
</routes>
