<?xml version="1.0" encoding="UTF-8"?>
<!-- generated on 2023-01-09 20:57:54.752069 by randomTrips.py v1_13_0+0000-4b5bca80615
<configuration>
    <end value="600"/>
    <length value="True"/>
    <net-file value="C:\Users\Olive\python_projects\SUMO-study\haikou\network\haikou.net.xml"/>
    <output-trip-file value="C:\Users\Olive\python_projects\SUMO-study\haikou\network\haikou.trips.xml"/>
</configuration>

-->
<routes xmlns:xsi="http://www.w3.org/2001/XMLSchema-instance" xsi:noNamespaceSchemaLocation="http://sumo.dlr.de/xsd/routes_file.xsd">
    <trip id="0" depart="0.00" from="310735298#0" to="-210611798#1"/>
    <trip id="1" depart="1.00" from="-605430796#2" to="-482445346"/>
    <trip id="2" depart="2.00" from="397442831#4" to="311274321#0"/>
    <trip id="3" depart="3.00" from="677726915#1" to="-216586784#2"/>
    <trip id="4" depart="4.00" from="188361623" to="-214920717#2"/>
    <trip id="5" depart="5.00" from="-481390255#1" to="215499153#7"/>
    <trip id="6" depart="6.00" from="-211911541#2" to="-481044230"/>
    <trip id="7" depart="7.00" from="310795529#0" to="216000351#1"/>
    <trip id="8" depart="8.00" from="-482233742#2" to="217951872#12"/>
    <trip id="9" depart="9.00" from="580158302#1" to="-1022326056"/>
    <trip id="10" depart="10.00" from="577351187#0" to="392149674#8"/>
    <trip id="11" depart="11.00" from="-871919731#0" to="-311186873#2"/>
    <trip id="12" depart="12.00" from="871919724#9" to="-897296060"/>
    <trip id="13" depart="13.00" from="-217817304#5" to="-217821179#0"/>
    <trip id="14" depart="14.00" from="605437802" to="258076807#5"/>
    <trip id="15" depart="15.00" from="580158285#1" to="480364272"/>
    <trip id="16" depart="16.00" from="215666071#4" to="936107308#2"/>
    <trip id="17" depart="17.00" from="118909037#6" to="216273798"/>
    <trip id="18" depart="18.00" from="605427345#0" to="288652200#9"/>
    <trip id="19" depart="19.00" from="637332423#6" to="217816086#7"/>
    <trip id="20" depart="20.00" from="389588795#0" to="-215506654#1"/>
    <trip id="21" depart="21.00" from="-526759027#2" to="-637332265#0"/>
    <trip id="22" depart="22.00" from="-216544633#1" to="-528920658#4"/>
    <trip id="23" depart="23.00" from="-217834826#2" to="-605433018"/>
    <trip id="24" depart="24.00" from="310692440#2" to="1060041169#2"/>
    <trip id="25" depart="25.00" from="1050877339#0" to="-481218680#0"/>
    <trip id="26" depart="26.00" from="-605429546#2" to="823606465#7"/>
    <trip id="27" depart="27.00" from="310795520#1" to="288650641#4"/>
    <trip id="28" depart="28.00" from="-392164770#0" to="480364256"/>
    <trip id="29" depart="29.00" from="-382185127#1" to="137336542#8"/>
    <trip id="30" depart="30.00" from="945618236" to="310795523#9"/>
    <trip id="31" depart="31.00" from="216116878" to="315476362"/>
    <trip id="32" depart="32.00" from="605434497#1" to="526747226#0"/>
    <trip id="33" depart="33.00" from="-527238890#2" to="-215049634#7"/>
    <trip id="34" depart="34.00" from="-699743310" to="-605429546#1"/>
    <trip id="35" depart="35.00" from="-481234040#1" to="860407577#1"/>
    <trip id="36" depart="36.00" from="666665320#18" to="-736995021#0"/>
    <trip id="37" depart="37.00" from="310880392" to="177110511"/>
    <trip id="38" depart="38.00" from="71226744" to="211999040#6"/>
    <trip id="39" depart="39.00" from="-605427353#1" to="-580158310#1"/>
    <trip id="40" depart="40.00" from="216276440" to="-605427332#1"/>
    <trip id="41" depart="41.00" from="217279260#1" to="693394814#0"/>
    <trip id="42" depart="42.00" from="165193657#1" to="-481390222#0"/>
    <trip id="43" depart="43.00" from="961244529" to="215506650#0"/>
    <trip id="44" depart="44.00" from="-217816084#1" to="-215508150#2"/>
    <trip id="45" depart="45.00" from="-288650624#2" to="310692441#1"/>
    <trip id="46" depart="46.00" from="528946804#5" to="210619047#0"/>
    <trip id="47" depart="47.00" from="-215891117#0" to="164351977"/>
    <trip id="48" depart="48.00" from="95569421" to="215669528#5"/>
    <trip id="49" depart="49.00" from="897296059#0" to="637332472#9"/>
    <trip id="50" depart="50.00" from="-118909012" to="397442799#2"/>
    <trip id="51" depart="51.00" from="311131888#4" to="215808683#0"/>
    <trip id="52" depart="52.00" from="-605429546#1" to="310795529#1"/>
    <trip id="53" depart="53.00" from="-288650638#2" to="211676966#6"/>
    <trip id="54" depart="54.00" from="211911794#4" to="871370100#1"/>
    <trip id="55" depart="55.00" from="666665320#12" to="-605427335#1"/>
    <trip id="56" depart="56.00" from="215161807#3" to="-397442772#2"/>
    <trip id="57" depart="57.00" from="71216124" to="637629419#3"/>
    <trip id="58" depart="58.00" from="-637332423#7" to="310795520#0"/>
    <trip id="59" depart="59.00" from="252880972#1" to="-311131896#1"/>
    <trip id="60" depart="60.00" from="481058347#0" to="215880150#1"/>
    <trip id="61" depart="61.00" from="482233742#9" to="215678517#0"/>
    <trip id="62" depart="62.00" from="-1013477323#0" to="-860407200"/>
    <trip id="63" depart="63.00" from="-177337269" to="760136410#0"/>
    <trip id="64" depart="64.00" from="666665324" to="605433010"/>
    <trip id="65" depart="65.00" from="-693394825#1" to="-215678513#4"/>
    <trip id="66" depart="66.00" from="666665323#4" to="868580242#2"/>
    <trip id="67" depart="67.00" from="-216584513#2" to="215019975#8"/>
    <trip id="68" depart="68.00" from="-216036950" to="481390146#1"/>
    <trip id="69" depart="69.00" from="481218728" to="-310774251#1"/>
    <trip id="70" depart="70.00" from="212763387" to="216272891#1"/>
    <trip id="71" depart="71.00" from="-605429539" to="666665320#15"/>
    <trip id="72" depart="72.00" from="189029866#1" to="-481234038#0"/>
    <trip id="73" depart="73.00" from="215671605#3" to="480364272"/>
    <trip id="74" depart="74.00" from="-481044242" to="-736981047#0"/>
    <trip id="75" depart="75.00" from="95569415#1" to="310931502"/>
    <trip id="76" depart="76.00" from="211623364#27" to="215655078#1"/>
    <trip id="77" depart="77.00" from="-310659403#1" to="-492666733#0"/>
    <trip id="78" depart="78.00" from="-868580240#1" to="217836172#2"/>
    <trip id="79" depart="79.00" from="-528920656#2" to="-481390242"/>
    <trip id="80" depart="80.00" from="-216272890#0" to="310735298#10"/>
    <trip id="81" depart="81.00" from="-527238889" to="693400343#6"/>
    <trip id="82" depart="82.00" from="637332399#3" to="-216119716#1"/>
    <trip id="83" depart="83.00" from="-543849671" to="311131888#0"/>
    <trip id="84" depart="84.00" from="-481390146#0" to="-310814544#0"/>
    <trip id="85" depart="85.00" from="814640677#1" to="216695993#3"/>
    <trip id="86" depart="86.00" from="212013042#11" to="531240769#3"/>
    <trip id="87" depart="87.00" from="580158286#0" to="-480841968#3"/>
    <trip id="88" depart="88.00" from="-217825132#0" to="211626528#3"/>
    <trip id="89" depart="89.00" from="189029866#14" to="214740251#4"/>
    <trip id="90" depart="90.00" from="394223473" to="311186873#1"/>
    <trip id="91" depart="91.00" from="936154155" to="-217826895"/>
    <trip id="92" depart="92.00" from="177110490#0" to="-936113436#2"/>
    <trip id="93" depart="93.00" from="637332423#6" to="-605422382#0"/>
    <trip id="94" depart="94.00" from="-480841988#1" to="211925865"/>
    <trip id="95" depart="95.00" from="188361621#6" to="-605433020#0"/>
    <trip id="96" depart="96.00" from="-605423528#2" to="736995014#0"/>
    <trip id="97" depart="97.00" from="211638429#4" to="637332489#2"/>
    <trip id="98" depart="98.00" from="215891111#0" to="-215571356#3"/>
    <trip id="99" depart="99.00" from="984014998#0" to="605434500"/>
    <trip id="100" depart="100.00" from="896917366#0" to="760136363#1"/>
    <trip id="101" depart="101.00" from="605479283#5" to="-315897579#1"/>
    <trip id="102" depart="102.00" from="214762712#8" to="-481234046"/>
    <trip id="103" depart="103.00" from="165194601#1" to="-215684816#0"/>
    <trip id="104" depart="104.00" from="118911178#7" to="936372399#1"/>
    <trip id="105" depart="105.00" from="-605429540#1" to="531240766#0"/>
    <trip id="106" depart="106.00" from="211913571#1" to="210619795#4"/>
    <trip id="107" depart="107.00" from="871919724#9" to="95569417#0"/>
    <trip id="108" depart="108.00" from="216029235#0" to="397442772#3"/>
    <trip id="109" depart="109.00" from="-315464407#2" to="-666670931"/>
    <trip id="110" depart="110.00" from="873028750#7" to="217818965#4"/>
    <trip id="111" depart="111.00" from="215719471#3" to="481049573#4"/>
    <trip id="112" depart="112.00" from="-215682992#0" to="217825312#1"/>
    <trip id="113" depart="113.00" from="215213951#4" to="637332379#0"/>
    <trip id="114" depart="114.00" from="-315476344#1" to="871919753#16"/>
    <trip id="115" depart="115.00" from="-216544639#2" to="-397442838#4"/>
    <trip id="116" depart="116.00" from="217831555" to="311274320#12"/>
    <trip id="117" depart="117.00" from="-531249752#1" to="-309913324#1"/>
    <trip id="118" depart="118.00" from="677726914#1" to="-580158306#2"/>
    <trip id="119" depart="119.00" from="217830405" to="297818179#8"/>
    <trip id="120" depart="120.00" from="180863782#15" to="217824517#0"/>
    <trip id="121" depart="121.00" from="215521885#5" to="814640677#1"/>
    <trip id="122" depart="122.00" from="-481049559#8" to="394209910#2"/>
    <trip id="123" depart="123.00" from="-544109482#2" to="177110512#4"/>
    <trip id="124" depart="124.00" from="311043673#8" to="-693394792#1"/>
    <trip id="125" depart="125.00" from="-71216124" to="481058347#4"/>
    <trip id="126" depart="126.00" from="-216273798" to="211999040#2"/>
    <trip id="127" depart="127.00" from="984014996#2" to="95569421"/>
    <trip id="128" depart="128.00" from="-216276450" to="-481234044#3"/>
    <trip id="129" depart="129.00" from="-605429540#1" to="812732541#2"/>
    <trip id="130" depart="130.00" from="666670926#2" to="666679798#1"/>
    <trip id="131" depart="131.00" from="1050877337#0" to="-315468093#0"/>
    <trip id="132" depart="132.00" from="605429555#2" to="392164744"/>
    <trip id="133" depart="133.00" from="257963104#4" to="945618150"/>
    <trip id="134" depart="134.00" from="310880377#3" to="-1050877339#4"/>
    <trip id="135" depart="135.00" from="605424706#0" to="-686238852"/>
    <trip id="136" depart="136.00" from="310931525#4" to="840105974#1"/>
    <trip id="137" depart="137.00" from="-310880377#4" to="-288652191#2"/>
    <trip id="138" depart="138.00" from="-257949680" to="216281416#2"/>
    <trip id="139" depart="139.00" from="-605429987" to="258078712"/>
    <trip id="140" depart="140.00" from="392164758#6" to="-481049541#1"/>
    <trip id="141" depart="141.00" from="310688810#0" to="-605427338#0"/>
    <trip id="142" depart="142.00" from="214770708" to="693400343#5"/>
    <trip id="143" depart="143.00" from="605435240#7" to="-217816086#5"/>
    <trip id="144" depart="144.00" from="189029866#14" to="-605433014#3"/>
    <trip id="145" depart="145.00" from="-1013645063#1" to="492673061#1"/>
    <trip id="146" depart="146.00" from="310693010#6" to="-605427328#2"/>
    <trip id="147" depart="147.00" from="480364277#0" to="216273791"/>
    <trip id="148" depart="148.00" from="210602498#0" to="-1060041169#1"/>
    <trip id="149" depart="149.00" from="-216298893#3" to="677726898#2"/>
    <trip id="150" depart="150.00" from="693394863" to="216016146#0"/>
    <trip id="151" depart="151.00" from="605429969#0" to="217820823#0"/>
    <trip id="152" depart="152.00" from="-311131885" to="-310770456#1"/>
    <trip id="153" depart="153.00" from="-693394841#2" to="693394817#1"/>
    <trip id="154" depart="154.00" from="531243486#1" to="637332472#7"/>
    <trip id="155" depart="155.00" from="677730467#1" to="-481218695"/>
    <trip id="156" depart="156.00" from="-605422993" to="-218011987#0"/>
    <trip id="157" depart="157.00" from="492666717" to="677726899#0"/>
    <trip id="158" depart="158.00" from="177110540" to="309913320"/>
    <trip id="159" depart="159.00" from="-315462440#1" to="760137937#1"/>
    <trip id="160" depart="160.00" from="637332472#4" to="936113443"/>
    <trip id="161" depart="161.00" from="583226076#2" to="677726895"/>
    <trip id="162" depart="162.00" from="-210619047#0" to="480994243#0"/>
    <trip id="163" depart="163.00" from="-840105979#7" to="775923321#2"/>
    <trip id="164" depart="164.00" from="544109483" to="637332493#6"/>
    <trip id="165" depart="165.00" from="583226076#0" to="-605429541#0"/>
    <trip id="166" depart="166.00" from="526759025#1" to="-258078714#1"/>
    <trip id="167" depart="167.00" from="637344446#3" to="637332429#5"/>
    <trip id="168" depart="168.00" from="-492109970" to="605427335#0"/>
    <trip id="169" depart="169.00" from="211926053#0" to="-693400328#5"/>
    <trip id="170" depart="170.00" from="531240769#1" to="-508470914#1"/>
    <trip id="171" depart="171.00" from="-210611798#0" to="-480842009#0"/>
    <trip id="172" depart="172.00" from="-784084199#1" to="637332493#6"/>
    <trip id="173" depart="173.00" from="872882453#3" to="-605434498#0"/>
    <trip id="174" depart="174.00" from="310735309#1" to="177337260#0"/>
    <trip id="175" depart="175.00" from="936150676#9" to="215761078#7"/>
    <trip id="176" depart="176.00" from="840105974#1" to="-288652191#1"/>
    <trip id="177" depart="177.00" from="897296048#2" to="-397442772#1"/>
    <trip id="178" depart="178.00" from="871919753#5" to="-605427346#2"/>
    <trip id="179" depart="179.00" from="-258078712" to="211676966#3"/>
    <trip id="180" depart="180.00" from="394209910#2" to="-736995014#1"/>
    <trip id="181" depart="181.00" from="229527721#3" to="215507348#4"/>
    <trip id="182" depart="182.00" from="127566936" to="217816084#7"/>
    <trip id="183" depart="183.00" from="-605425451" to="392167091#3"/>
    <trip id="184" depart="184.00" from="-1013477323#1" to="737300671"/>
    <trip id="185" depart="185.00" from="215669528#1" to="397442794#0"/>
    <trip id="186" depart="186.00" from="480841959#1" to="311131898#5"/>
    <trip id="187" depart="187.00" from="1013652111#1" to="-216099876#1"/>
    <trip id="188" depart="188.00" from="310931528#3" to="-871370098"/>
    <trip id="189" depart="189.00" from="-693403057" to="637323077#0"/>
    <trip id="190" depart="190.00" from="392164770#0" to="-693394798"/>
    <trip id="191" depart="191.00" from="-693394852#2" to="180863744"/>
    <trip id="192" depart="192.00" from="177110490#0" to="-637629398#0"/>
    <trip id="193" depart="193.00" from="-310770458#1" to="210604591#5"/>
    <trip id="194" depart="194.00" from="844552553" to="311274321#14"/>
    <trip id="195" depart="195.00" from="693394845#0" to="288652197#5"/>
    <trip id="196" depart="196.00" from="-637629398#1" to="216119709"/>
    <trip id="197" depart="197.00" from="-1013477323#0" to="-607294290"/>
    <trip id="198" depart="198.00" from="210604591#2" to="217818969#2"/>
    <trip id="199" depart="199.00" from="310880389#0" to="212763164#1"/>
    <trip id="200" depart="200.00" from="211637376#1" to="-481234046"/>
    <trip id="201" depart="201.00" from="212015038#2" to="693394854#0"/>
    <trip id="202" depart="202.00" from="531243486#0" to="-389588795#2"/>
    <trip id="203" depart="203.00" from="-216584506" to="215562722#1"/>
    <trip id="204" depart="204.00" from="310659407#2" to="-873028748#0"/>
    <trip id="205" depart="205.00" from="605424707" to="481049574#17"/>
    <trip id="206" depart="206.00" from="311119949#0" to="-492666733#0"/>
    <trip id="207" depart="207.00" from="-481044236" to="-210602498#2"/>
    <trip id="208" depart="208.00" from="-580158290" to="214762712#37"/>
    <trip id="209" depart="209.00" from="605479295#1" to="-216273785"/>
    <trip id="210" depart="210.00" from="180863712#0" to="310694995#1"/>
    <trip id="211" depart="211.00" from="-480994249" to="392149663#1"/>
    <trip id="212" depart="212.00" from="214984139#12" to="-580158286#1"/>
    <trip id="213" depart="213.00" from="310880396#1" to="-1013750746"/>
    <trip id="214" depart="214.00" from="481044230" to="492666733#3"/>
    <trip id="215" depart="215.00" from="-257949680" to="210631045#1"/>
    <trip id="216" depart="216.00" from="-397442772#2" to="871919731#1"/>
    <trip id="217" depart="217.00" from="215505013#0" to="-215566172#1"/>
    <trip id="218" depart="218.00" from="-605422385#1" to="637323090#1"/>
    <trip id="219" depart="219.00" from="211918052" to="583226077#7"/>
    <trip id="220" depart="220.00" from="310933502#7" to="945618156"/>
    <trip id="221" depart="221.00" from="217834305#0" to="868643394#1"/>
    <trip id="222" depart="222.00" from="677726915#1" to="288652190#1"/>
    <trip id="223" depart="223.00" from="392164767#7" to="215499152#8"/>
    <trip id="224" depart="224.00" from="605429538" to="216116883"/>
    <trip id="225" depart="225.00" from="677730463" to="481044241#4"/>
    <trip id="226" depart="226.00" from="212489699" to="-605425460#0"/>
    <trip id="227" depart="227.00" from="-590057148" to="310770459#4"/>
    <trip id="228" depart="228.00" from="481218728" to="215663014#11"/>
    <trip id="229" depart="229.00" from="297818179#0" to="-605430948#0"/>
    <trip id="230" depart="230.00" from="-216447275#4" to="-605479297#0"/>
    <trip id="231" depart="231.00" from="-605429980#2" to="-784084202"/>
    <trip id="232" depart="232.00" from="215678517#0" to="-310881633#1"/>
    <trip id="233" depart="233.00" from="-528946804#1" to="392149658#0"/>
    <trip id="234" depart="234.00" from="392149657" to="-215891087#0"/>
    <trip id="235" depart="235.00" from="177337245#6" to="215937257"/>
    <trip id="236" depart="236.00" from="180863712#3" to="-481049565#6"/>
    <trip id="237" depart="237.00" from="180863785#1" to="693400342#6"/>
    <trip id="238" depart="238.00" from="217279260#0" to="392149658#4"/>
    <trip id="239" depart="239.00" from="637332379#0" to="482233741#1"/>
    <trip id="240" depart="240.00" from="127565094#0" to="-1022299603"/>
    <trip id="241" depart="241.00" from="-936150689#0" to="481218680#0"/>
    <trip id="242" depart="242.00" from="637323091#1" to="871370095"/>
    <trip id="243" depart="243.00" from="180863782#12" to="481049568"/>
    <trip id="244" depart="244.00" from="215761078#7" to="258076807#1"/>
    <trip id="245" depart="245.00" from="-482233742#3" to="-481390222#1"/>
    <trip id="246" depart="246.00" from="210631435#3" to="-214744397#1"/>
    <trip id="247" depart="247.00" from="-860407594" to="313076972#0"/>
    <trip id="248" depart="248.00" from="177110497#3" to="-315896099#1"/>
    <trip id="249" depart="249.00" from="211989559#8" to="-310770457#3"/>
    <trip id="250" depart="250.00" from="288652194#3" to="-211631682#5"/>
    <trip id="251" depart="251.00" from="164352106#1" to="216555865#9"/>
    <trip id="252" depart="252.00" from="-211928726#0" to="310817102"/>
    <trip id="253" depart="253.00" from="-310880397#0" to="212008909#35"/>
    <trip id="254" depart="254.00" from="-215655079#1" to="137336542#6"/>
    <trip id="255" depart="255.00" from="-481234044#3" to="-860407581"/>
    <trip id="256" depart="256.00" from="481049574#12" to="137336542#6"/>
    <trip id="257" depart="257.00" from="481044232#0" to="605433011"/>
    <trip id="258" depart="258.00" from="-605424706#3" to="-216550621#3"/>
    <trip id="259" depart="259.00" from="-177337268#4" to="215880150#5"/>
    <trip id="260" depart="260.00" from="984014998#4" to="1013456589#0"/>
    <trip id="261" depart="261.00" from="310795529#1" to="528946805"/>
    <trip id="262" depart="262.00" from="310814557#0" to="481218680#4"/>
    <trip id="263" depart="263.00" from="868643394#1" to="-481044231#0"/>
    <trip id="264" depart="264.00" from="-177337274#3" to="-311131894#3"/>
    <trip id="265" depart="265.00" from="-310736993#0" to="311131893"/>
    <trip id="266" depart="266.00" from="216298895#0" to="-481390168"/>
    <trip id="267" depart="267.00" from="315477075#2" to="482233742#6"/>
    <trip id="268" depart="268.00" from="-392149663#1" to="288650633#3"/>
    <trip id="269" depart="269.00" from="481006567#0" to="-288652188#11"/>
    <trip id="270" depart="270.00" from="605424709#5" to="872312025#0"/>
    <trip id="271" depart="271.00" from="-258078711#1" to="-210619046"/>
    <trip id="272" depart="272.00" from="-693400328#2" to="311274321#16"/>
    <trip id="273" depart="273.00" from="871919726#1" to="177110540"/>
    <trip id="274" depart="274.00" from="392164739#1" to="-216298896"/>
    <trip id="275" depart="275.00" from="311274321#2" to="310692440#3"/>
    <trip id="276" depart="276.00" from="-217951872#12" to="496062517#10"/>
    <trip id="277" depart="277.00" from="606256987" to="252880974#0"/>
    <trip id="278" depart="278.00" from="-310659403#1" to="936154153#0"/>
    <trip id="279" depart="279.00" from="492673061#1" to="-95569406#1"/>
    <trip id="280" depart="280.00" from="210602498#2" to="127565094#0"/>
    <trip id="281" depart="281.00" from="215248131#8" to="-936150675#3"/>
    <trip id="282" depart="282.00" from="605479293#0" to="605429546#3"/>
    <trip id="283" depart="283.00" from="-229527721#4" to="871919753#16"/>
    <trip id="284" depart="284.00" from="310692439#1" to="605430788#1"/>
    <trip id="285" depart="285.00" from="392149658#2" to="211682449#15"/>
    <trip id="286" depart="286.00" from="397442813#1" to="872820367"/>
    <trip id="287" depart="287.00" from="-605429559#2" to="605424709#6"/>
    <trip id="288" depart="288.00" from="215669525#3" to="214920716#3"/>
    <trip id="289" depart="289.00" from="210631435#1" to="480841959#1"/>
    <trip id="290" depart="290.00" from="-605429550#2" to="637332364#10"/>
    <trip id="291" depart="291.00" from="605429540#1" to="-216585549#2"/>
    <trip id="292" depart="292.00" from="666670933#2" to="-580158286#0"/>
    <trip id="293" depart="293.00" from="211986732#3" to="288652185#2"/>
    <trip id="294" depart="294.00" from="118911178#7" to="-213551414#5"/>
    <trip id="295" depart="295.00" from="607294289" to="-397442816#0"/>
    <trip id="296" depart="296.00" from="-481234045" to="580158286#0"/>
    <trip id="297" depart="297.00" from="-871919731#1" to="677726881#0"/>
    <trip id="298" depart="298.00" from="315896100#2" to="-605433012#2"/>
    <trip id="299" depart="299.00" from="-1060041169#1" to="868643392"/>
    <trip id="300" depart="300.00" from="-216584513#2" to="397442798#0"/>
    <trip id="301" depart="301.00" from="214770708" to="481234044#3"/>
    <trip id="302" depart="302.00" from="311274321#2" to="310880396#0"/>
    <trip id="303" depart="303.00" from="214772655#1" to="544781366#0"/>
    <trip id="304" depart="304.00" from="-217817306#3" to="-482233741#1"/>
    <trip id="305" depart="305.00" from="313076972#0" to="-693400342#5"/>
    <trip id="306" depart="306.00" from="216695998" to="214762712#17"/>
    <trip id="307" depart="307.00" from="215663014#1" to="210631435#1"/>
    <trip id="308" depart="308.00" from="480880871" to="-871919714"/>
    <trip id="309" depart="309.00" from="382185127#1" to="-605429976#0"/>
    <trip id="310" depart="310.00" from="-605424705#1" to="-310659402"/>
    <trip id="311" depart="311.00" from="-480880870" to="-309913320"/>
    <trip id="312" depart="312.00" from="215666064#6" to="481390169#0"/>
    <trip id="313" depart="313.00" from="-397442843#5" to="-481390146#0"/>
    <trip id="314" depart="314.00" from="214762712#28" to="397442831#3"/>
    <trip id="315" depart="315.00" from="936113448#2" to="215666063#6"/>
    <trip id="316" depart="316.00" from="-605434518#1" to="-217834314#1"/>
    <trip id="317" depart="317.00" from="-480994243#2" to="-508470914#0"/>
    <trip id="318" depart="318.00" from="-397442810#0" to="-137336542#5"/>
    <trip id="319" depart="319.00" from="215666063#5" to="-605430947"/>
    <trip id="320" depart="320.00" from="936107358#1" to="216281419#1"/>
    <trip id="321" depart="321.00" from="315476372" to="-310736950#0"/>
    <trip id="322" depart="322.00" from="637332493#6" to="215161809"/>
    <trip id="323" depart="323.00" from="637344453#0" to="217082980"/>
    <trip id="324" depart="324.00" from="212008909#11" to="211863022#6"/>
    <trip id="325" depart="325.00" from="-397442841" to="-215655082#1"/>
    <trip id="326" depart="326.00" from="860407202" to="214770707"/>
    <trip id="327" depart="327.00" from="605425456#1" to="177337269"/>
    <trip id="328" depart="328.00" from="-216292205#1" to="310694988#2"/>
    <trip id="329" depart="329.00" from="-215668432#1" to="-311131884#18"/>
    <trip id="330" depart="330.00" from="216292205#1" to="-693394864"/>
    <trip id="331" depart="331.00" from="95569405#8" to="-297818179#0"/>
    <trip id="332" depart="332.00" from="481218675#1" to="288650627#1"/>
    <trip id="333" depart="333.00" from="528920656#3" to="-492666733#3"/>
    <trip id="334" depart="334.00" from="215521884#4" to="211926053#0"/>
    <trip id="335" depart="335.00" from="211638429#0" to="637332472#0"/>
    <trip id="336" depart="336.00" from="945618266#1" to="-693400331"/>
    <trip id="337" depart="337.00" from="288652191#6" to="288650664#4"/>
    <trip id="338" depart="338.00" from="480364250" to="868643392"/>
    <trip id="339" depart="339.00" from="-481218680#0" to="-481234036#0"/>
    <trip id="340" depart="340.00" from="310931505" to="-314555382#0"/>
    <trip id="341" depart="341.00" from="-392170329#2" to="-216292222#1"/>
    <trip id="342" depart="342.00" from="-1013477323#1" to="211926053#0"/>
    <trip id="343" depart="343.00" from="217826893" to="-637332364#2"/>
    <trip id="344" depart="344.00" from="-528946804#4" to="392164767#8"/>
    <trip id="345" depart="345.00" from="382185127#11" to="211939270#0"/>
    <trip id="346" depart="346.00" from="311273799" to="736995017#2"/>
    <trip id="347" depart="347.00" from="526759026#1" to="310660677#2"/>
    <trip id="348" depart="348.00" from="310931515#0" to="812732542"/>
    <trip id="349" depart="349.00" from="210594692#1" to="215948358#4"/>
    <trip id="350" depart="350.00" from="310795519#1" to="693403060#3"/>
    <trip id="351" depart="351.00" from="605427331#2" to="-216272887#0"/>
    <trip id="352" depart="352.00" from="-389588795#0" to="-693403067#0"/>
    <trip id="353" depart="353.00" from="481006570" to="216586788#0"/>
    <trip id="354" depart="354.00" from="-605479287#4" to="-310735320#2"/>
    <trip id="355" depart="355.00" from="311274320#23" to="392149685#1"/>
    <trip id="356" depart="356.00" from="860407243" to="215340390#8"/>
    <trip id="357" depart="357.00" from="214920718#2" to="-216544638#1"/>
    <trip id="358" depart="358.00" from="-215403931#2" to="211637376#1"/>
    <trip id="359" depart="359.00" from="-736995017#1" to="-605423535"/>
    <trip id="360" depart="360.00" from="-217816086#0" to="871919753#24"/>
    <trip id="361" depart="361.00" from="605429986#2" to="217279260#1"/>
    <trip id="362" depart="362.00" from="868643395" to="984014998#4"/>
    <trip id="363" depart="363.00" from="311119949#0" to="-605429555#1"/>
    <trip id="364" depart="364.00" from="-215492210" to="481234037#1"/>
    <trip id="365" depart="365.00" from="212008909#25" to="310931521#0"/>
    <trip id="366" depart="366.00" from="736956448#6" to="-397442808#1"/>
    <trip id="367" depart="367.00" from="217816084#1" to="310736162#0"/>
    <trip id="368" depart="368.00" from="214795036#0" to="-217816084#0"/>
    <trip id="369" depart="369.00" from="-936107360#0" to="-872309920#0"/>
    <trip id="370" depart="370.00" from="311043672#7" to="637332423#7"/>
    <trip id="371" depart="371.00" from="-814640677#1" to="392149657"/>
    <trip id="372" depart="372.00" from="-605479284#1" to="863494789"/>
    <trip id="373" depart="373.00" from="605422385#1" to="216272893#3"/>
    <trip id="374" depart="374.00" from="211913571#1" to="-736995021#0"/>
    <trip id="375" depart="375.00" from="-737300671" to="897296046#4"/>
    <trip id="376" depart="376.00" from="177110497#2" to="215530840#0"/>
    <trip id="377" depart="377.00" from="945618163#1" to="311041621#5"/>
    <trip id="378" depart="378.00" from="215719471#7" to="189029865#1"/>
    <trip id="379" depart="379.00" from="-480364272" to="1054737272#3"/>
    <trip id="380" depart="380.00" from="481049548#2" to="310660677#4"/>
    <trip id="381" depart="381.00" from="481049573#6" to="-481049541#0"/>
    <trip id="382" depart="382.00" from="215880152#1" to="760136386"/>
    <trip id="383" depart="383.00" from="211623364#29" to="392149674#8"/>
    <trip id="384" depart="384.00" from="-310659407#2" to="936107309#1"/>
    <trip id="385" depart="385.00" from="252880969" to="-543120860#0"/>
    <trip id="386" depart="386.00" from="-315476362" to="216272899#18"/>
    <trip id="387" depart="387.00" from="215937257" to="-217817304#5"/>
    <trip id="388" depart="388.00" from="945618320#1" to="71226745"/>
    <trip id="389" depart="389.00" from="211929145#0" to="-288652196#6"/>
    <trip id="390" depart="390.00" from="605429546#2" to="215338744#1"/>
    <trip id="391" depart="391.00" from="392164752" to="215505015#6"/>
    <trip id="392" depart="392.00" from="-605430785#2" to="605433020#0"/>
    <trip id="393" depart="393.00" from="936150676#12" to="-580158267"/>
    <trip id="394" depart="394.00" from="215908927#1" to="164352033"/>
    <trip id="395" depart="395.00" from="736981049#1" to="215505013#0"/>
    <trip id="396" depart="396.00" from="666665334#1" to="637332493#6"/>
    <trip id="397" depart="397.00" from="-605430949#0" to="543893778#4"/>
    <trip id="398" depart="398.00" from="180863712#1" to="814640676"/>
    <trip id="399" depart="399.00" from="215333238#6" to="605429543"/>
    <trip id="400" depart="400.00" from="-605434516" to="-686223540"/>
    <trip id="401" depart="401.00" from="217817304#4" to="984014996#4"/>
    <trip id="402" depart="402.00" from="214771946" to="-311131884#14"/>
    <trip id="403" depart="403.00" from="215669528#10" to="-945618123"/>
    <trip id="404" depart="404.00" from="215937253" to="215948344#1"/>
    <trip id="405" depart="405.00" from="211913571#2" to="-822309238#5"/>